
  EPA STORM WATER MANAGEMENT MODEL - VERSION 5.1 (Build 5.1.015)
  --------------------------------------------------------------

  SWMM 
  
  WARNING 04: minimum elevation drop used for Conduit 060101-24420204-000032
  WARNING 04: minimum elevation drop used for Conduit 060101-28420307-000102
  WARNING 04: minimum elevation drop used for Conduit 060101-28420311-000041
  WARNING 04: minimum elevation drop used for Conduit 060101-28420312-000128
  WARNING 04: minimum elevation drop used for Conduit 060101-28420404-000014
  WARNING 04: minimum elevation drop used for Conduit 060101-28420410-000007
  WARNING 04: minimum elevation drop used for Conduit 060101-28420715-000095
  WARNING 04: minimum elevation drop used for Conduit 060101-28420801-000072
  WARNING 04: minimum elevation drop used for Conduit 060101-28420806-000163
  WARNING 04: minimum elevation drop used for Conduit 060101-28420806-000214
  WARNING 04: minimum elevation drop used for Conduit 060101-28420809-000151
  WARNING 04: minimum elevation drop used for Conduit 060101-28420811-000118
  WARNING 04: minimum elevation drop used for Conduit 060101-28421101-000027
  WARNING 04: minimum elevation drop used for Conduit 060101-28421101-000133
  WARNING 08: elevation drop exceeds length for Conduit 060101-28421107-000121
  WARNING 04: minimum elevation drop used for Conduit 060101-28421108-000198
  WARNING 04: minimum elevation drop used for Conduit 060101-28421115-000178
  WARNING 04: minimum elevation drop used for Conduit 060101-28421208-000018
  WARNING 04: minimum elevation drop used for Conduit 060101-28421216-000065
  WARNING 04: minimum elevation drop used for Conduit 060101-28421412-000037
  WARNING 04: minimum elevation drop used for Conduit 060101-28421412-000146
  WARNING 04: minimum elevation drop used for Conduit 060101-28421416-000075
  WARNING 04: minimum elevation drop used for Conduit 060101-28421509-000081
  WARNING 04: minimum elevation drop used for Conduit 060101-28421511-000093
  WARNING 04: minimum elevation drop used for Conduit 060101-28421512-000071
  WARNING 04: minimum elevation drop used for Conduit 060101-28421513-000089
  WARNING 04: minimum elevation drop used for Conduit 060101-28421513-000105
  WARNING 04: minimum elevation drop used for Conduit 060101-28421614-000104
  WARNING 04: minimum elevation drop used for Conduit 060101-28421804-000021
  WARNING 04: minimum elevation drop used for Conduit 060101-28421808-000041
  WARNING 04: minimum elevation drop used for Conduit 060101-28421907-000039
  WARNING 04: minimum elevation drop used for Conduit 060101-28421907-000057
  WARNING 04: minimum elevation drop used for Conduit 060101-28421916-000042
  WARNING 04: minimum elevation drop used for Conduit 060101-28421916-000064
  WARNING 04: minimum elevation drop used for Conduit 060101-28422002-000086
  WARNING 04: minimum elevation drop used for Conduit 060101-28460105-000014
  WARNING 04: minimum elevation drop used for Conduit 060101-28460506-000006
  WARNING 04: minimum elevation drop used for Conduit 060101-28460506-000011
  WARNING 04: minimum elevation drop used for Conduit 060101-32421612-000056
  WARNING 04: minimum elevation drop used for Conduit 060101-32422006-000087
  WARNING 04: minimum elevation drop used for Conduit 060101-32422007-000114
  WARNING 08: elevation drop exceeds length for Conduit 060101-32422011-000031
  WARNING 04: minimum elevation drop used for Conduit 060101-32422012-000003
  WARNING 04: minimum elevation drop used for Conduit 060101-32461313-000053
  WARNING 04: minimum elevation drop used for Conduit 060101-32461706-000017
  WARNING 04: minimum elevation drop used for Conduit 060102-28420215-000003
  WARNING 04: minimum elevation drop used for Conduit 060102-28420311-000005
  WARNING 04: minimum elevation drop used for Conduit 060102-28420311-000006
  WARNING 04: minimum elevation drop used for Conduit 060102-28420604-000013
  WARNING 04: minimum elevation drop used for Conduit 060102-28420604-000015
  WARNING 04: minimum elevation drop used for Conduit 060102-28420701-000028
  WARNING 04: minimum elevation drop used for Conduit 060102-28420702-000001
  WARNING 04: minimum elevation drop used for Conduit 060102-28420702-000004
  WARNING 04: minimum elevation drop used for Conduit 060102-28420802-000002
  WARNING 04: minimum elevation drop used for Conduit 060102-28420813-000001
  WARNING 04: minimum elevation drop used for Conduit 060102-28421105-000002
  WARNING 04: minimum elevation drop used for Conduit 060102-28421107-000011
  WARNING 04: minimum elevation drop used for Conduit 060102-28421109-000014
  WARNING 04: minimum elevation drop used for Conduit 060102-28421111-000003
  WARNING 04: minimum elevation drop used for Conduit 060102-28421204-000004
  WARNING 04: minimum elevation drop used for Conduit 060102-28421212-000023
  WARNING 04: minimum elevation drop used for Conduit 060102-28421212-000024
  WARNING 04: minimum elevation drop used for Conduit 060102-28421212-000025
  WARNING 04: minimum elevation drop used for Conduit 060102-28421215-000010
  WARNING 04: minimum elevation drop used for Conduit 060102-28421216-000004
  WARNING 04: minimum elevation drop used for Conduit 060102-28421216-000008
  WARNING 04: minimum elevation drop used for Conduit 060102-28421407-000001
  WARNING 04: minimum elevation drop used for Conduit 060102-28421407-000006
  WARNING 04: minimum elevation drop used for Conduit 060102-28421604-000007
  WARNING 04: minimum elevation drop used for Conduit 060102-28421606-000009
  WARNING 04: minimum elevation drop used for Conduit 060102-28421608-000004
  WARNING 04: minimum elevation drop used for Conduit 060102-28421608-000007
  WARNING 04: minimum elevation drop used for Conduit 060102-28421613-000007
  WARNING 04: minimum elevation drop used for Conduit 060102-28460505-000001
  WARNING 04: minimum elevation drop used for Conduit 060102-28460509-000022
  WARNING 04: minimum elevation drop used for Conduit 060102-28460509-000035
  WARNING 04: minimum elevation drop used for Conduit 060102-28460510-000012
  WARNING 04: minimum elevation drop used for Conduit 060102-28460510-000015
  WARNING 04: minimum elevation drop used for Conduit 060102-28460510-000020
  WARNING 04: minimum elevation drop used for Conduit 060102-28460514-000010
  WARNING 04: minimum elevation drop used for Conduit 060102-28460913-000010
  WARNING 04: minimum elevation drop used for Conduit 060102-28461309-000007
  WARNING 04: minimum elevation drop used for Conduit C1
  WARNING 04: minimum elevation drop used for Conduit HD10_2
  WARNING 04: minimum elevation drop used for Conduit HD12
  WARNING 04: minimum elevation drop used for Conduit HD13_2
  WARNING 04: minimum elevation drop used for Conduit HD19
  WARNING 04: minimum elevation drop used for Conduit HD2_2
  WARNING 04: minimum elevation drop used for Conduit HD24_2
  WARNING 04: minimum elevation drop used for Conduit HD30_2
  WARNING 04: minimum elevation drop used for Conduit HD33
  WARNING 04: minimum elevation drop used for Conduit HD38_2
  WARNING 04: minimum elevation drop used for Conduit HD42_2
  WARNING 04: minimum elevation drop used for Conduit HD46_2
  WARNING 04: minimum elevation drop used for Conduit HD48_1
  WARNING 04: minimum elevation drop used for Conduit HD48_2
  WARNING 04: minimum elevation drop used for Conduit HD49_1
  WARNING 04: minimum elevation drop used for Conduit HD49_2
  WARNING 04: minimum elevation drop used for Conduit HD57_2
  WARNING 04: minimum elevation drop used for Conduit HD70_2
  WARNING 04: minimum elevation drop used for Conduit HD73
  WARNING 04: minimum elevation drop used for Conduit HD74
  WARNING 04: minimum elevation drop used for Conduit HD75_2
  WARNING 04: minimum elevation drop used for Conduit HD76
  WARNING 04: minimum elevation drop used for Conduit HD8_2
  WARNING 04: minimum elevation drop used for Conduit Link_3249
  WARNING 04: minimum elevation drop used for Conduit Link_3254
  WARNING 04: minimum elevation drop used for Conduit Link_3265
  WARNING 04: minimum elevation drop used for Conduit Link_3363
  WARNING 02: maximum depth increased for Node 0+715
  WARNING 02: maximum depth increased for Node 0+768
  WARNING 02: maximum depth increased for Node 0+800
  WARNING 02: maximum depth increased for Node 0+856
  WARNING 02: maximum depth increased for Node 060201-28420311-000003
  WARNING 02: maximum depth increased for Node 060201-28420312-000011
  WARNING 02: maximum depth increased for Node 060201-28420414-000052
  WARNING 02: maximum depth increased for Node 060201-28420812-000003
  WARNING 02: maximum depth increased for Node 060201-28460501-000003
  WARNING 02: maximum depth increased for Node 060201-28460511-000013
  WARNING 02: maximum depth increased for Node 060201-28460514-000025
  WARNING 02: maximum depth increased for Node 060201-28460514-000027
  WARNING 02: maximum depth increased for Node 060201-28460515-000019
  WARNING 02: maximum depth increased for Node 060201-28460515-000020
  WARNING 02: maximum depth increased for Node 060201-28460905-000003
  WARNING 02: maximum depth increased for Node 060201-28460913-000003
  WARNING 02: maximum depth increased for Node 060201-28460913-000009
  WARNING 02: maximum depth increased for Node 060209-28460105-000003
  WARNING 02: maximum depth increased for Node 060209-28460512-000010
  WARNING 02: maximum depth increased for Node 060209-28460512-000011
  WARNING 02: maximum depth increased for Node 060209-32422003-000003
  WARNING 02: maximum depth increased for Node 1+150
  WARNING 02: maximum depth increased for Node 1+200
  WARNING 02: maximum depth increased for Node 1+423
  WARNING 02: maximum depth increased for Node 1+450
  WARNING 02: maximum depth increased for Node 1+500
  WARNING 02: maximum depth increased for Node 1+550
  WARNING 02: maximum depth increased for Node 1+600
  WARNING 02: maximum depth increased for Node 1+700
  WARNING 02: maximum depth increased for Node 1+750
  WARNING 02: maximum depth increased for Node 1+800
  WARNING 02: maximum depth increased for Node 2+000
  WARNING 02: maximum depth increased for Node 2+050
  WARNING 02: maximum depth increased for Node 2+100
  WARNING 02: maximum depth increased for Node 2+150
  WARNING 02: maximum depth increased for Node 2+250
  WARNING 02: maximum depth increased for Node 2+350
  WARNING 02: maximum depth increased for Node 2+400
  WARNING 02: maximum depth increased for Node 2+450
  WARNING 02: maximum depth increased for Node 3+000
  WARNING 02: maximum depth increased for Node 3+050
  WARNING 02: maximum depth increased for Node 3+100
  WARNING 02: maximum depth increased for Node 3+150
  WARNING 02: maximum depth increased for Node 3+200
  WARNING 02: maximum depth increased for Node 3+250
  WARNING 02: maximum depth increased for Node 3+300
  WARNING 02: maximum depth increased for Node 3+350
  WARNING 02: maximum depth increased for Node 3+400
  WARNING 02: maximum depth increased for Node 3+450
  WARNING 02: maximum depth increased for Node 3+500
  WARNING 02: maximum depth increased for Node 3+550
  WARNING 02: maximum depth increased for Node 3+600
  WARNING 02: maximum depth increased for Node 3+750
  WARNING 02: maximum depth increased for Node 3+850
  WARNING 02: maximum depth increased for Node 3+900
  WARNING 02: maximum depth increased for Node 4+250
  WARNING 02: maximum depth increased for Node J1
  WARNING 02: maximum depth increased for Node J10
  WARNING 02: maximum depth increased for Node J11
  WARNING 02: maximum depth increased for Node J12
  WARNING 02: maximum depth increased for Node J13
  WARNING 02: maximum depth increased for Node J14
  WARNING 02: maximum depth increased for Node J15
  WARNING 02: maximum depth increased for Node J16
  WARNING 02: maximum depth increased for Node J17
  WARNING 02: maximum depth increased for Node J18
  WARNING 02: maximum depth increased for Node J19
  WARNING 02: maximum depth increased for Node J2
  WARNING 02: maximum depth increased for Node J21
  WARNING 02: maximum depth increased for Node J22
  WARNING 02: maximum depth increased for Node J3
  WARNING 02: maximum depth increased for Node J4
  WARNING 02: maximum depth increased for Node J5
  WARNING 02: maximum depth increased for Node J6
  WARNING 02: maximum depth increased for Node J7
  WARNING 02: maximum depth increased for Node J8
  WARNING 02: maximum depth increased for Node J9
  
  *************
  Element Count
  *************
  Number of rain gages ...... 1
  Number of subcatchments ... 2780
  Number of nodes ........... 2897
  Number of links ........... 2900
  Number of pollutants ...... 0
  Number of land uses ....... 0
  
  
  ****************
  Raingage Summary
  ****************
                                                      Data       Recording
  Name                 Data Source                    Type       Interval 
  ------------------------------------------------------------------------
  RG1                  p2                             INTENSITY    5 min.
  
  
  ********************
  Subcatchment Summary
  ********************
  Name                       Area     Width   %Imperv    %Slope Rain Gage            Outlet              
  -----------------------------------------------------------------------------------------------------------
  S0                         0.23     53.84     66.61    0.5200 RG1                  060209-24420406-000075
  S1                         1.34    222.32     72.79    0.6180 RG1                  060209-28421116-000011
  S10                        9.41    631.84     75.04    1.8040 RG1                  Node_3311           
  S100                       0.65     66.15     82.58    4.4440 RG1                  060209-32461714-000005
  S1000                      1.02     23.16     86.10    3.3870 RG1                  060209-28461310-000046
  S1001                      1.57     57.09     87.24    3.0990 RG1                  060209-28461310-000045
  S1002                      0.53     92.82     76.90    1.7760 RG1                  060209-28461310-000044
  S1003                      0.70     70.35     83.75    2.8310 RG1                  060209-28461306-000081
  S1004                      0.76     40.00     78.65    4.6650 RG1                  060209-28461306-000079
  S1005                      0.98     33.94     82.87    2.4660 RG1                  060209-28461306-000078
  S1006                      0.83    552.30     81.82    1.8370 RG1                  060209-28461306-000077
  S1007                      0.19     11.70     79.72    0.3200 RG1                  060201-28461309-000063
  S1008                      1.00    656.34     80.68    2.7350 RG1                  060209-28461306-000005
  S1009                      0.66     15.66     82.04    3.0240 RG1                  060209-28461306-000004
  S101                       0.89     85.27     78.12    1.2680 RG1                  060209-32461715-000027
  S1010                      1.32     61.20     79.28    1.3670 RG1                  060209-28461306-000003
  S1011                      0.84     45.74     76.62    1.1350 RG1                  060209-28461306-000002
  S1012                      0.63     15.84     80.72    3.2830 RG1                  060201-28461302-000001
  S1013                      0.51    106.67     68.02    3.8510 RG1                  060209-28461301-000038
  S1014                      0.43    143.99     44.76    1.5360 RG1                  060209-28461301-000031
  S1015                      0.33     37.33     68.30    2.7920 RG1                  060209-28461301-000015
  S1016                      0.54    112.44     58.26    2.1010 RG1                  060201-28461301-000006
  S1017                      0.49    273.38     55.51    0.4870 RG1                  060201-28461301-000004
  S1018                      2.79    319.49     75.64    5.6450 RG1                  060201-28461301-000002
  S1019                      0.10      3.19     87.51    0.6370 RG1                  060209-28421608-000156
  S102                       1.56    836.52     66.84    1.7230 RG1                  060201-32461715-000001
  S1020                      0.89    175.08     80.49    0.6150 RG1                  060201-28461301-000001
  S1021                      0.11     13.04     81.61    0.4560 RG1                  060201-28421608-000015
  S1022                      0.17     15.86     57.77    0.4880 RG1                  060201-28421608-000014
  S1023                      0.32     40.93     66.72    0.6560 RG1                  060201-28421608-000012
  S1024                      0.17    113.62     69.44    0.5620 RG1                  060201-28421608-000010
  S1025                      0.17     21.99     42.27    0.2120 RG1                  060201-28421608-000005
  S1026                      0.22    171.31     46.21    0.6130 RG1                  060201-28421604-000012
  S1027                      0.73    107.03     35.15    1.1360 RG1                  060201-28421604-000006
  S1028                      0.39     69.03     74.48    0.6050 RG1                  060209-28421608-000189
  S1029                      0.65    156.71     62.40    0.6820 RG1                  060209-28421608-000165
  S103                       0.22     54.90     59.68    4.6270 RG1                  060201-28460103-000052
  S1030                      0.06     12.18     75.55    0.3560 RG1                  060209-28421608-000155
  S1031                      0.25    239.82     79.72    0.3320 RG1                  060209-28421608-000152
  S1032                      0.19     79.31     75.74    0.8310 RG1                  060209-28421608-000136
  S1033                      0.59    116.50     79.73    0.7400 RG1                  060209-28421604-000067
  S1034                      0.64     88.48     85.02    1.0300 RG1                  060209-28421604-000039
  S1035                      0.40    264.08     80.27    1.0870 RG1                  060201-28421604-000009
  S1036                      0.26    895.04     89.88    0.2860 RG1                  060209-28421607-000236
  S1037                      0.64    123.73     81.73    0.9860 RG1                  060209-28421607-000213
  S1038                      0.34     11.42     90.00    1.2290 RG1                  060209-28421607-000123
  S1039                      0.43     34.09     90.00    0.7950 RG1                  060209-28421607-000093
  S104                       0.93     96.47     71.73    8.1820 RG1                  060209-28460102-000004
  S1040                      0.65     32.66     85.03    0.8340 RG1                  060209-28421603-000089
  S1041                      0.80     58.10     84.33    0.5840 RG1                  060209-28421603-000060
  S1042                      0.76    451.61     82.47    1.0150 RG1                  060209-28421603-000010
  S1043                      0.36     53.23     89.05    0.8670 RG1                  060201-28421607-000081
  S1044                      0.65    326.01     68.93    0.2030 RG1                  060209-28421508-000016
  S1045                      0.80     78.95     69.68    0.1900 RG1                  060209-28421508-000015
  S1046                      1.20    922.90     82.65    0.4790 RG1                  060209-28421504-000059
  S1047                      0.46     20.52     84.83    0.4080 RG1                  060209-28421504-000055
  S1048                      0.47     54.48     85.20    0.6650 RG1                  060209-28421504-000048
  S1049                      0.30     77.36     83.96    0.5490 RG1                  060209-28421505-000142
  S105                       1.70    275.79     67.96    2.0700 RG1                  060209-28420404-000006
  S1050                      0.14     50.88     87.18    0.7450 RG1                  060209-28421505-000133
  S1051                      0.76     43.97     70.57    0.4630 RG1                  060209-28421501-000062
  S1052                      0.63     51.78     79.25    0.7460 RG1                  060209-28421501-000018
  S1053                      0.97     70.34     78.01    0.4200 RG1                  060209-28421501-000017
  S1054                      0.61    100.47     79.24    0.4580 RG1                  060209-28421408-000056
  S1055                      0.16     71.53     87.68    0.1010 RG1                  060201-28421505-000020
  S1056                      1.26    746.89     73.14    0.6380 RG1                  060209-28421408-000061
  S1057                      0.93    321.60     78.28    0.6270 RG1                  060209-28421408-000059
  S1058                      0.95     97.94     81.05    0.5100 RG1                  060209-28421408-000058
  S1059                      0.64     85.99     81.99    0.6470 RG1                  060209-28421408-000057
  S106                       0.96     91.69     53.34    2.8910 RG1                  060209-28420401-000084
  S1060                      1.55    143.86     81.36    0.8370 RG1                  060209-28421407-000057
  S1061                      1.11     61.12     81.44    0.5620 RG1                  060209-28421407-000061
  S1062                      1.34     75.62     78.43    0.5880 RG1                  060209-28421407-000059
  S1063                      0.33     10.90     83.55    0.4220 RG1                  060209-28421407-000012
  S1064                      2.34     95.94     79.99    0.7670 RG1                  060209-28421407-000006
  S1065                      1.73     54.15     81.28    0.5940 RG1                  060201-28421407-000039
  S1066                      0.48    164.29     83.62    0.5570 RG1                  060209-28421407-000015
  S1067                      0.79     17.14     71.72    0.0000 RG1                  060209-28421406-000052
  S1068                      3.11     68.22     85.13    1.0350 RG1                  060209-28421406-000051
  S1069                      0.06     24.77     55.34    0.6230 RG1                  060209-28421406-000050
  S107                       0.36     30.54     80.61    1.9920 RG1                  060209-28420301-000049
  S1070                      3.29    178.80     86.28    0.7920 RG1                  060209-28421406-000049
  S1071                      0.08     22.88     70.88    0.0000 RG1                  060209-28421406-000021
  S1072                      0.48     96.49     81.93    0.2380 RG1                  060209-28421406-000005
  S1073                      0.47     38.53     87.05    0.3280 RG1                  060209-28421406-000004
  S1074                      0.15     68.00     85.16    0.7040 RG1                  060209-28421406-000003
  S1075                      0.32     82.00     85.42    0.7860 RG1                  060209-28421406-000002
  S1076                      0.13     24.26     76.56    0.0000 RG1                  060209-28421406-000001
  S1077                      0.31     25.13     85.30    0.4450 RG1                  060209-28421402-000114
  S1078                      0.44     27.68     88.46    0.4950 RG1                  060209-28421402-000088
  S1079                      0.27     47.32     85.09    0.5440 RG1                  060209-28421402-000086
  S108                       1.12   4370.89     84.96    1.8330 RG1                  060209-28420202-000003
  S1080                      0.49     16.45     86.55    0.7290 RG1                  060209-28421402-000039
  S1081                      0.26     34.10     86.11    0.8430 RG1                  060201-28421407-000024
  S1082                      0.44     64.44     89.21    0.3880 RG1                  060209-28421402-000151
  S1083                      0.11     20.36     76.36    0.0000 RG1                  060209-28421402-000096
  S1084                      0.84     72.34     83.00    0.7690 RG1                  060209-28421402-000090
  S1085                      1.38     78.54     86.86    0.9060 RG1                  060209-28421501-000061
  S1086                      1.17     26.65     86.84    0.8510 RG1                  060209-28421501-000016
  S1087                      1.18     39.22     86.87    0.6300 RG1                  060209-28421501-000015
  S1088                      1.30     56.97     85.93    0.5550 RG1                  060209-28421113-000110
  S1089                      1.05     58.47     85.67    0.6140 RG1                  060209-28421113-000103
  S109                       0.89    135.76     88.74    1.7450 RG1                  060209-28420207-000014
  S1090                      1.20     46.38     74.82    0.5240 RG1                  060209-28421113-000007
  S1091                      1.09    548.26     76.18    0.8530 RG1                  060209-28421113-000006
  S1092                      0.99     66.29     80.23    0.5510 RG1                  060209-28421504-000060
  S1093                      0.30     24.03     86.81    0.3380 RG1                  060209-28421504-000032
  S1094                      3.09    243.18     76.54    1.5970 RG1                  060209-28421116-000034
  S1095                      0.26     29.43     89.95    0.6240 RG1                  060201-28421504-000019
  S1096                      0.90    160.37     69.74    0.2930 RG1                  Node_3258           
  S1097                      5.20    373.34     88.26    0.6870 RG1                  Node_3257           
  S1098                      0.81     66.33     89.23    0.9350 RG1                  060209-28421213-000032
  S1099                      0.67    446.54     87.93    1.3110 RG1                  060209-28421213-000031
  S11                        0.26     48.71     69.53    0.3780 RG1                  060209-24420308-000062
  S110                       4.19    630.82     89.73    2.2820 RG1                  060209-28420208-000014
  S1100                      1.23     66.79     89.54    1.1880 RG1                  060209-28421213-000025
  S1101                      0.66     57.54     87.20    0.9270 RG1                  060209-28421603-000125
  S1102                      0.96     77.34     88.21    0.6770 RG1                  060209-28421603-000002
  S1103                      0.58     50.04     90.00    0.8900 RG1                  060209-28421603-000001
  S1104                      1.19     37.27     89.38    1.1840 RG1                  060209-28421215-000063
  S1105                      0.36    210.90     90.00    1.2690 RG1                  060209-28421215-000043
  S1106                      0.95    115.01     89.90    1.4430 RG1                  060209-28421215-000017
  S1107                      0.49    294.39     87.56    0.5240 RG1                  060201-28421603-000044
  S1108                      0.21     79.69     80.21    1.9140 RG1                  060209-28421604-000125
  S1109                      0.29     35.40     80.21    0.5360 RG1                  060209-28421604-000106
  S111                       1.53    218.14     87.59    3.8100 RG1                  060209-28420305-000059
  S1110                      0.56     92.80     77.10    0.7590 RG1                  060209-28421604-000085
  S1111                      0.48    124.17     64.24    0.6730 RG1                  060209-28421216-000182
  S1112                      0.16     58.94     51.86    0.4510 RG1                  060209-28421216-000165
  S1113                      0.21     45.28     84.41    0.5740 RG1                  060209-28421216-000118
  S1114                      0.39    168.04     66.43    2.2370 RG1                  060209-28421216-000077
  S1115                      0.15     76.95     80.34    0.3400 RG1                  060209-28421216-000074
  S1116                      0.11     34.53     81.40    0.6530 RG1                  060209-28421216-000059
  S1117                      0.09     15.09     84.95    0.0000 RG1                  060209-28421216-000037
  S1118                      0.23     59.43     72.75    1.3120 RG1                  060209-28421216-000027
  S1119                      0.17     38.03     67.94    0.8570 RG1                  060201-28421604-000004
  S112                       0.24     24.49     88.28    4.0690 RG1                  060209-28420305-000005
  S1120                      0.34     44.80     72.45    1.3420 RG1                  060209-28460913-000040
  S1121                      0.22     29.33     49.81    0.5980 RG1                  060209-28421216-000035
  S1122                      0.98    175.66     61.26    2.1600 RG1                  060201-28421604-000010
  S1123                      0.25    144.72     72.32    2.0290 RG1                  060201-28421604-000007
  S1124                      0.38    138.96     77.10    3.4730 RG1                  060201-28421216-000019
  S1125                      0.14     17.37     79.21    1.7070 RG1                  060201-28421216-000013
  S1126                      0.37     49.27     55.61    4.9680 RG1                  060201-28421216-000003
  S1127                      0.40     92.59     69.79    1.2710 RG1                  060201-28421216-000002
  S1128                      0.15     36.50     73.62    1.0350 RG1                  060209-28460913-000128
  S1129                      0.16     33.84     84.18    1.1520 RG1                  060209-28460913-000096
  S113                       0.06     79.41     88.92    1.8630 RG1                  060209-28420306-000061
  S1130                      0.29     54.16     59.03    1.4460 RG1                  060201-28460913-000013
  S1131                      0.15     10.48     81.95    1.0870 RG1                  060201-28460913-000012
  S1132                      0.13     94.86     74.61    4.7810 RG1                  060201-28460913-000011
  S1133                      0.23     34.91     73.63    1.8120 RG1                  060201-28460913-000006
  S1134                      0.13    107.31     62.33    0.2090 RG1                  060201-28460913-000003
  S1135                      1.06     48.86     64.97    3.2100 RG1                  060209-28460914-000002
  S1136                      0.89     24.47     65.46    3.8680 RG1                  060209-28460914-000001
  S1137                      0.49    281.94     72.90    5.8240 RG1                  060209-28460913-000167
  S1138                      0.92    251.60     81.38    5.2030 RG1                  060209-28460913-000163
  S1139                      2.71    520.10     69.16    6.5430 RG1                  060209-28460909-000091
  S114                       0.38    110.51     66.41    2.2670 RG1                  060209-28420307-000029
  S1140                      0.29     23.60     73.74    3.3840 RG1                  060209-28460909-000051
  S1141                      0.10     14.73     75.94    1.7420 RG1                  060209-28460909-000031
  S1142                      0.57    696.04     74.55    1.9440 RG1                  060201-28460913-000009
  S1143                      0.46     45.62     67.69    1.0930 RG1                  060201-28460913-000008
  S1144                      0.58    119.12     69.76    1.3620 RG1                  060201-28460913-000005
  S1145                      0.20     31.07     72.43    0.9450 RG1                  060201-28460913-000004
  S1146                      0.35     46.66     82.42    2.2840 RG1                  060201-28460909-000004
  S1147                      0.32     44.03     80.11    4.0780 RG1                  060201-28460909-000001
  S1148                      0.23     15.13     79.95    5.5670 RG1                  060209-28421216-000328
  S1149                      0.04     23.16     66.62    0.6830 RG1                  060209-28421216-000303
  S115                       0.96    138.28     70.65    4.9110 RG1                  060201-28420307-000005
  S1150                      0.04     23.56     64.77    0.4050 RG1                  060209-28421216-000301
  S1151                      0.08     20.20     77.46    0.5160 RG1                  060209-28421216-000300
  S1152                      0.32    108.25     78.58    2.0680 RG1                  060209-28421216-000298
  S1153                      0.02      9.87     72.85    1.0810 RG1                  060209-28421216-000297
  S1154                      0.03     16.87     59.22    0.7870 RG1                  060209-28421216-000285
  S1155                      0.11     54.59     67.85    0.6270 RG1                  060209-28421216-000245
  S1156                      0.28     20.84     57.28    1.0600 RG1                  060209-28421216-000226
  S1157                      0.14     58.45     68.21    0.5330 RG1                  060209-28421216-000203
  S1158                      0.21    108.44     81.16    0.6330 RG1                  060209-28421215-000177
  S1159                      0.81    225.98     88.11    1.8450 RG1                  060209-28421215-000175
  S116                       1.86    304.93     53.89    6.7000 RG1                  060201-28420308-000005
  S1160                      0.11     22.20     80.27    0.5200 RG1                  060209-28421215-000141
  S1161                      0.30    114.86     68.45    0.2750 RG1                  060209-28421215-000131
  S1162                      0.31     71.04     74.95    0.5000 RG1                  060209-28421215-000129
  S1163                      0.08     13.50     81.82    7.3140 RG1                  060209-28421212-000077
  S1164                      0.26     61.54     85.23    4.0380 RG1                  060209-28421212-000060
  S1165                      0.17     30.51     49.57    1.7170 RG1                  060209-28421212-000051
  S1166                      0.14     37.82     87.35    0.8740 RG1                  060209-28421212-000041
  S1167                      0.19     46.87     77.52    3.2300 RG1                  060209-28421212-000031
  S1168                      0.08     63.64     84.95    3.0560 RG1                  060209-28421212-000024
  S1169                      0.19     25.05     74.53    1.7680 RG1                  060201-28421216-000011
  S117                       1.88    394.55     69.75   10.4240 RG1                  060201-28420401-000041
  S1170                      0.02     14.44     84.50    1.0810 RG1                  060201-28421216-000009
  S1171                      0.23     76.88     74.13    2.9290 RG1                  060201-28421216-000004
  S1172                      0.10     23.66     81.25    0.9660 RG1                  060201-28421215-000009
  S1173                      0.27     41.36     77.76    3.7580 RG1                  060201-28421212-000031
  S1174                      0.07      8.59     72.17    0.0000 RG1                  060201-28421212-000026
  S1175                      0.20     30.42     79.24    2.3310 RG1                  060201-28421212-000024
  S1176                      0.19     63.55     89.03    2.8400 RG1                  060201-28421212-000018
  S1177                      0.02     29.08     81.90    6.0430 RG1                  060201-28421212-000005
  S1178                      0.06     30.42     50.31    0.3590 RG1                  060201-28421212-000002
  S1179                      0.08     27.55     89.48    1.0870 RG1                  060209-28421215-000132
  S118                       7.98    846.98     62.61    4.2920 RG1                  060201-28420407-000004
  S1180                      0.37    101.45     82.16    0.6200 RG1                  060209-28421215-000128
  S1181                      0.23     55.04     86.16    1.0170 RG1                  060209-28421215-000126
  S1182                      1.40    131.45     90.00    1.6580 RG1                  060209-28421215-000044
  S1183                      0.28     79.47     89.54    0.8240 RG1                  060209-28421215-000011
  S1184                      1.01    436.62     87.67    1.9350 RG1                  060209-28421215-000001
  S1185                      1.15     38.28     89.77    2.3260 RG1                  060209-28421211-000053
  S1186                      0.94     67.92     90.00    2.3470 RG1                  060209-28421211-000028
  S1187                      1.08    102.95     89.51    3.4510 RG1                  060209-28421211-000020
  S1188                      0.52     39.64     90.00    1.4800 RG1                  060201-28421215-000012
  S1189                      0.29     78.85     90.00    0.8330 RG1                  060201-28421215-000011
  S119                       1.67    191.59     76.86    3.9920 RG1                  060201-28420408-000004
  S1190                      1.21    131.97     85.57    1.0510 RG1                  060209-28421213-000042
  S1191                      0.92     47.46     87.20    1.2910 RG1                  060209-28421213-000040
  S1192                      0.86     26.63     89.34    1.2610 RG1                  060209-28421213-000036
  S1193                      0.50     24.11     87.86    1.2090 RG1                  060209-28421209-000036
  S1194                      1.02     46.18     87.43    1.3780 RG1                  060209-28421209-000033
  S1195                      2.57    333.38     90.00    1.4230 RG1                  060209-28421209-000019
  S1196                      3.75    301.17     79.08    0.7120 RG1                  060209-28421115-000173
  S1197                      1.24     55.25     82.38    1.9740 RG1                  060209-28421113-000005
  S1198                      0.90     67.38     82.56    1.2300 RG1                  060209-28421113-000004
  S1199                      0.52    358.17     83.88    1.3240 RG1                  060209-28421109-000111
  S12                        0.86    145.33     57.29    0.6810 RG1                  060201-24420307-000008
  S120                       1.21    226.55     82.96    9.5280 RG1                  060209-28460105-000032
  S1200                      0.68     57.40     81.92    1.4940 RG1                  060209-28421109-000088
  S1201                      0.83     75.97     86.41    1.1540 RG1                  060209-28421109-000009
  S1202                      2.68    513.15     86.70    0.9960 RG1                  060209-28421012-000076
  S1203                      1.73    412.71     78.08    0.5600 RG1                  060209-28421008-000035
  S1204                      0.89     55.33     82.16    1.2960 RG1                  060209-28421008-000032
  S1205                      0.41     63.84     88.40    0.7670 RG1                  060209-28421008-000031
  S1206                      0.17     42.87     89.91    0.2980 RG1                  060209-28421008-000030
  S1207                      0.17      5.67     77.57    0.7220 RG1                  060209-28421008-000028
  S1208                      0.30     60.53     74.20    0.7090 RG1                  060209-28421007-000015
  S1209                      3.28    432.92     80.38    0.8490 RG1                  060209-28421007-000014
  S121                       0.43     45.88     52.17    5.8810 RG1                  060209-28460105-000018
  S1210                      0.37    111.05     87.50    1.1040 RG1                  060209-28421109-000137
  S1211                      0.17     51.97     72.22    2.1830 RG1                  060209-28421109-000023
  S1212                      0.37     61.80     87.68    0.5890 RG1                  060209-28421109-000008
  S1213                      0.20     57.82     87.74    0.9840 RG1                  060209-28421109-000007
  S1214                      0.13     21.57     74.07    1.3520 RG1                  060209-28421105-000075
  S1215                      0.14     41.78     90.00    1.0000 RG1                  060209-28421105-000073
  S1216                      0.06      2.02     90.00    1.3700 RG1                  060209-28421105-000066
  S1217                      0.45     49.47     79.03    1.1160 RG1                  060209-28421105-000049
  S1218                      0.12     53.35     90.00    1.4700 RG1                  060209-28421105-000034
  S1219                      0.28     45.55     82.29    1.0380 RG1                  060209-28421105-000005
  S122                       0.29     71.50     67.28    1.4870 RG1                  060209-28460107-000004
  S1220                      0.27   2138.86     85.09    1.0750 RG1                  060209-28421105-000004
  S1221                      0.54    118.51     79.21    1.2970 RG1                  060209-28421008-000034
  S1222                      0.41     72.57     77.26    1.3860 RG1                  060209-28421008-000027
  S1223                      0.47     63.32     86.10    1.9050 RG1                  060209-28421109-000133
  S1224                      0.38     32.13     82.60    1.6640 RG1                  060209-28421109-000131
  S1225                      0.41     17.70     84.80    1.2190 RG1                  060209-28421109-000040
  S1226                      0.79     26.39     84.52    1.1950 RG1                  060209-28421109-000038
  S1227                      0.11     18.45     89.14    1.3840 RG1                  060201-28421110-000058
  S1228                      0.46     27.70     81.62    1.1990 RG1                  060201-28421110-000023
  S1229                      0.31     43.66     83.97    0.8810 RG1                  060201-28421109-000064
  S123                       1.93    503.28     74.00    5.6010 RG1                  060209-28460103-000061
  S1230                      0.34     28.12     87.52    1.0230 RG1                  060201-28421109-000018
  S1231                      1.02    304.81     87.99    1.2800 RG1                  060209-28421110-000078
  S1232                      0.58     30.21     82.55    0.5150 RG1                  060209-28421110-000075
  S1233                      0.29     20.57     90.00    0.7150 RG1                  060209-28421110-000043
  S1234                      0.34     33.52     89.79    0.5270 RG1                  060209-28421110-000042
  S1235                      0.79    303.44     88.39    1.1070 RG1                  060209-28421110-000032
  S1236                      0.48     44.65     77.94    1.1610 RG1                  060209-28421110-000027
  S1237                      0.70    237.78     88.58    0.7680 RG1                  060209-28421110-000003
  S1238                      0.18     37.56     90.00    2.1840 RG1                  060201-28421110-000057
  S1239                      0.19     23.57     90.00    0.6520 RG1                  060201-28421110-000026
  S124                       0.25      8.21     89.99    4.2450 RG1                  060209-28420412-000036
  S1240                      1.42    309.98     82.61    1.2960 RG1                  Node_3316           
  S1241                      0.06     29.68     72.55    1.5470 RG1                  060209-28421111-000103
  S1242                      0.45     28.64     88.95    0.9810 RG1                  060209-28421111-000051
  S1243                      0.52     48.07     88.51    1.2450 RG1                  060209-28421111-000045
  S1244                      0.10     48.95     72.71    0.5990 RG1                  060209-28421111-000030
  S1245                      0.38     66.30     89.44    0.8580 RG1                  060209-28421110-000049
  S1246                      0.65    153.01     80.02    2.2650 RG1                  060209-28421107-000061
  S1247                      0.02      5.13     86.41    4.5000 RG1                  060209-28421107-000060
  S1248                      0.28     52.34     86.72    1.2950 RG1                  060209-28421107-000058
  S1249                      0.27    120.98     87.60    2.5450 RG1                  060209-28421107-000052
  S125                       0.12     32.45     63.29    4.9610 RG1                  060209-28420411-000032
  S1250                      0.06     20.62     80.02    4.6110 RG1                  060209-28421107-000049
  S1251                      0.20    107.54     89.87    1.6540 RG1                  060209-28421107-000048
  S1252                      0.06     23.54     73.37    1.7360 RG1                  060209-28421107-000042
  S1253                      0.14     46.69     90.00    0.6830 RG1                  060209-28421107-000041
  S1254                      0.06     24.49     86.94    4.5000 RG1                  060201-28421107-000020
  S1255                      0.17    110.32     81.62    1.4590 RG1                  060201-28421107-000013
  S1256                      0.08     15.30     75.51    1.2290 RG1                  060201-28421107-000012
  S1257                      0.08     30.21     84.12    0.2050 RG1                  060201-28421111-000040
  S1258                      0.24     16.08     87.85    0.2860 RG1                  060201-28421110-000024
  S1259                      0.82    262.42     87.00    2.4380 RG1                  060209-28421112-000112
  S126                       1.17    219.50     71.46    3.1340 RG1                  060209-28420409-000075
  S1260                      0.53    117.48     86.51    1.1810 RG1                  060209-28421112-000063
  S1261                      0.41     30.23     80.27    0.7840 RG1                  060209-28421112-000060
  S1262                      0.33     10.89     82.07    0.9760 RG1                  060209-28421112-000059
  S1263                      0.42     54.06     89.06    0.7570 RG1                  060209-28421112-000025
  S1264                      0.46    111.93     88.64    1.5620 RG1                  060209-28421111-000102
  S1265                      0.63     77.20     89.30    2.1390 RG1                  060209-28421111-000042
  S1266                      0.17     42.33     83.58    0.4790 RG1                  060209-28421108-000164
  S1267                      0.47     84.89     80.80    0.4610 RG1                  060209-28421108-000158
  S1268                      0.03     17.28     90.00    0.7180 RG1                  060209-28421108-000156
  S1269                      0.18     28.00     77.77    0.3760 RG1                  060209-28421108-000122
  S127                       0.14     87.95     90.00    1.1030 RG1                  060201-28420312-000010
  S1270                      0.21    174.80     82.38    0.6140 RG1                  060209-28421108-000116
  S1271                      0.09     36.48     84.86    0.9040 RG1                  060209-28421108-000115
  S1272                      0.05     22.60     86.38    1.0360 RG1                  060209-28421108-000107
  S1273                      0.04     30.14     90.00    0.0000 RG1                  060209-28421108-000059
  S1274                      0.27     70.48     89.97    0.5390 RG1                  060209-28421205-000201
  S1275                      0.04     19.67     90.00    3.7340 RG1                  060209-28421205-000197
  S1276                      0.18     85.06     89.51    0.8480 RG1                  060209-28421205-000187
  S1277                      0.03     20.83     90.00    3.6730 RG1                  060209-28421205-000181
  S1278                      0.41    184.42     90.00    3.1830 RG1                  060209-28421205-000073
  S1279                      0.30     28.69     90.00    0.8630 RG1                  060209-28421205-000018
  S128                       0.88     39.34     88.15    1.4040 RG1                  060209-28420309-000045
  S1280                      0.09     39.74     88.98    0.4880 RG1                  060209-28421108-000180
  S1281                      0.04     31.07     90.00    1.5520 RG1                  060209-28421108-000175
  S1282                      0.02     23.76     90.00    0.5360 RG1                  060209-28421108-000174
  S1283                      0.05     71.40     90.00    1.0900 RG1                  060209-28421108-000173
  S1284                      0.03     26.89     90.00    1.3000 RG1                  060209-28421108-000172
  S1285                      0.01      5.57     90.00    0.3830 RG1                  060209-28421108-000171
  S1286                      0.01      9.35     90.00    0.5360 RG1                  060209-28421108-000170
  S1287                      0.03     45.86     90.00    0.3830 RG1                  060209-28421108-000168
  S1288                      0.18     67.59     87.65    0.6810 RG1                  060209-28421108-000167
  S1289                      0.36     36.72     90.00    0.1170 RG1                  060209-28421108-000127
  S129                       0.93     36.58     64.77    0.8350 RG1                  060209-28420211-000011
  S1290                      0.11     40.17     90.00    0.5810 RG1                  060209-28421108-000118
  S1291                      0.05     42.87     90.00    0.3900 RG1                  060209-28421108-000117
  S1292                      0.38    236.47     90.00    0.2310 RG1                  060209-28421108-000098
  S1293                      0.05     44.48     90.00    0.2010 RG1                  060209-28421108-000093
  S1294                      0.27     40.37     90.00    1.1040 RG1                  060209-28421108-000063
  S1295                      0.01      9.19     90.00    0.5360 RG1                  060209-28421108-000061
  S1296                      0.06     25.27     90.00    0.3630 RG1                  060209-28421108-000060
  S1297                      0.11     28.90     90.00    0.4740 RG1                  060209-28421108-000030
  S1298                      0.03     20.89     90.00    0.0000 RG1                  060209-28421205-000205
  S1299                      0.04     15.02     90.00    0.0000 RG1                  060209-28421205-000089
  S13                        4.77    651.11     68.42    0.5660 RG1                  060209-28421816-000017
  S130                       0.56    275.70     70.88    0.5340 RG1                  060209-28420215-000051
  S1300                      0.46     55.66     89.99    2.4330 RG1                  060209-28421205-000017
  S1301                      0.99     27.03     85.18    2.9490 RG1                  060209-28421211-000104
  S1302                      0.89     42.23     87.01    2.5040 RG1                  060209-28421211-000029
  S1303                      0.71    164.85     87.70    2.4840 RG1                  060209-28421211-000017
  S1304                      0.14     44.96     72.10    2.8700 RG1                  060209-28421207-000106
  S1305                      0.06     19.51     80.38    0.7140 RG1                  060209-28421207-000105
  S1306                      0.56    140.49     70.23    2.2710 RG1                  060209-28421207-000101
  S1307                      0.39     80.54     79.94    4.0060 RG1                  060209-28421207-000086
  S1308                      0.67    113.28     84.74    3.0620 RG1                  060209-28421207-000084
  S1309                      0.56    628.60     87.28    2.7890 RG1                  060209-28421207-000034
  S131                       0.37     21.09     86.10    1.5720 RG1                  060209-28420216-000009
  S1310                      0.49     34.18     84.86    2.8580 RG1                  060209-28421207-000019
  S1311                      0.02      0.59     84.09    6.5110 RG1                  060201-28421207-000011
  S1312                      0.58    194.29     73.40    1.9700 RG1                  060201-28421207-000008
  S1313                      0.20     71.12     77.91    2.3910 RG1                  060209-28421212-000134
  S1314                      0.23     47.37     74.19    2.8430 RG1                  060209-28421212-000122
  S1315                      0.10     81.47     60.98    0.5750 RG1                  060209-28421212-000113
  S1316                      0.28     21.70     53.26    2.4830 RG1                  060209-28421212-000103
  S1317                      0.06     23.23     85.09    0.1000 RG1                  060209-28421212-000088
  S1318                      0.45    221.78     55.89    3.2620 RG1                  060209-28421212-000083
  S1319                      0.29     40.97     89.11    0.7270 RG1                  060209-28421212-000080
  S132                       0.94    649.74     79.50    1.2790 RG1                  060209-28420313-000027
  S1320                      1.04    174.73     71.07    4.7490 RG1                  060209-28421208-000039
  S1321                      0.09     40.54     70.24    2.5310 RG1                  060209-28421208-000001
  S1322                      0.44    122.23     67.49    0.7910 RG1                  060209-28421207-000087
  S1323                      0.91    252.46     65.92    1.3810 RG1                  060209-28421207-000083
  S1324                      0.11     27.25     76.64    2.2870 RG1                  060201-28421212-000034
  S1325                      0.44    133.97     75.34    0.4870 RG1                  060201-28421212-000033
  S1326                      0.05      1.83     85.35    3.2970 RG1                  060201-28421212-000032
  S1327                      0.08     30.20     73.85    0.0000 RG1                  060201-28421212-000014
  S1328                      0.08     23.31     87.48    2.4630 RG1                  060201-28421212-000006
  S1329                      0.07     37.08     86.44    4.4850 RG1                  060201-28421212-000003
  S133                       0.81    118.28     79.46    1.1990 RG1                  060209-28420314-000097
  S1330                      0.61    172.01     82.34    2.3410 RG1                  060209-28460905-000018
  S1331                      0.79    189.08     71.69    1.0220 RG1                  060201-28421212-000067
  S1332                      0.35     46.63     78.26    0.5200 RG1                  060201-28421212-000037
  S1333                      0.77    109.90     79.10    0.6190 RG1                  060201-28421212-000007
  S1334                      0.21     26.18     68.06    2.0910 RG1                  060201-28421208-000032
  S1335                      0.43    228.18     74.06    2.5990 RG1                  060201-28421208-000025
  S1336                      0.31     10.34     80.82    0.7720 RG1                  060201-28421208-000016
  S1337                      0.34     34.24     72.27    1.9240 RG1                  060201-28421208-000015
  S1338                      0.63     66.42     87.13    5.6120 RG1                  060201-28460905-000003
  S1339                      0.16     30.38     79.82    1.6150 RG1                  060209-28460906-000148
  S134                       0.57     26.52     81.00    3.5400 RG1                  060209-28420314-000098
  S1340                      0.27     52.39     79.10    2.8450 RG1                  060209-28460906-000144
  S1341                      0.10      3.28     74.57    4.4660 RG1                  060209-28460906-000133
  S1342                      0.03     17.56     56.91    1.3260 RG1                  060209-28460906-000105
  S1343                      0.06     20.15     34.32    1.7250 RG1                  060209-28460906-000102
  S1344                      0.30     44.87     80.21    2.1710 RG1                  060209-28460906-000100
  S1345                      0.24     48.13     69.01    2.8320 RG1                  060209-28460906-000096
  S1346                      0.33     23.09     75.02    2.2610 RG1                  060209-28460906-000092
  S1347                     10.86   1077.19     89.67    3.7340 RG1                  060209-28460906-000087
  S1348                      0.79    199.59     89.14    3.8850 RG1                  060209-28460905-000067
  S1349                      0.24     46.26     90.00    2.1100 RG1                  060209-28460905-000043
  S135                       0.63    173.25     81.97    1.7820 RG1                  060209-28420312-000062
  S1350                      0.24    163.38     72.23    3.5860 RG1                  060209-28460905-000035
  S1351                      1.37     71.61     64.10    1.9520 RG1                  060209-28460905-000025
  S1352                      0.20     15.52     66.16    5.6610 RG1                  060201-28460905-000002
  S1353                      0.10      3.22     90.00    6.8850 RG1                  060201-28460905-000001
  S1354                      0.85    380.24     82.74    2.2870 RG1                  060209-28460901-000086
  S1355                      0.45     65.16     73.16    3.3870 RG1                  060209-28421208-000183
  S1356                      0.12     42.99     88.21    1.0240 RG1                  060209-28421204-000129
  S1357                      0.14     46.36     89.62    1.2680 RG1                  060209-28421204-000125
  S1358                      0.01     12.63     90.00    3.2890 RG1                  060209-28421204-000123
  S1359                      1.51     50.47     86.06    2.6280 RG1                  060209-28421204-000008
  S136                       0.61     68.61     83.26    1.4860 RG1                  060209-28420316-000101
  S1360                      0.06     28.68     90.00    2.7920 RG1                  060209-28421204-000006
  S1361                      0.70    147.74     72.05    4.8020 RG1                  060201-28421208-000039
  S1362                      0.19     18.16     66.99    3.3230 RG1                  060201-28421208-000036
  S1363                      0.30     73.66     69.81    3.4300 RG1                  060201-28421208-000018
  S1364                      0.23     28.81     75.80    0.2270 RG1                  060201-28421204-000028
  S1365                      0.17     15.05     63.79    0.9200 RG1                  060201-28421204-000026
  S1366                      0.18     17.39     61.90    3.8950 RG1                  060201-28421204-000023
  S1367                      0.49     45.08     76.80    1.8190 RG1                  060209-28421203-000035
  S1368                      0.53     56.09     66.56    1.9480 RG1                  060209-28421203-000032
  S1369                      0.29     36.37     83.87    1.3850 RG1                  060209-28421203-000006
  S137                       2.41    206.85     70.67    3.1640 RG1                  060209-28420409-000016
  S1370                      0.52    380.42     87.06    2.2090 RG1                  060209-28421207-000273
  S1371                      0.17     38.97     90.00    0.7750 RG1                  060209-28421207-000040
  S1372                      0.54     62.07     86.64    2.2810 RG1                  060209-28421207-000037
  S1373                      0.40     60.25     86.99    0.6400 RG1                  060209-28421207-000033
  S1374                      0.24     76.91     87.60    2.0920 RG1                  060209-28421203-000073
  S1375                      0.25     87.75     83.04    0.8290 RG1                  060209-28421203-000072
  S1376                      0.26     80.24     84.89    0.8170 RG1                  060209-28421203-000068
  S1377                      0.01      5.88     90.00    3.1030 RG1                  060209-28421203-000064
  S1378                      0.05     22.51     90.00    0.8070 RG1                  060209-28421203-000054
  S1379                      0.02     16.13     90.00    3.1030 RG1                  060209-28421203-000033
  S138                       0.43     43.38     78.30    1.7400 RG1                  060209-28420414-000012
  S1380                      0.27     60.18     90.00    0.7320 RG1                  060209-28421203-000030
  S1381                      0.10     24.83     90.00    0.2780 RG1                  060209-28421203-000027
  S1382                      0.41     97.19     81.54    1.8940 RG1                  060209-28421203-000026
  S1383                      0.01      7.37     90.00    3.1030 RG1                  060209-28421203-000002
  S1384                      0.07     49.80     90.00    3.1870 RG1                  060209-28421202-000110
  S1385                      0.12     75.54     89.68    1.8430 RG1                  060209-28421202-000066
  S1386                      0.11     42.05     82.87    1.2910 RG1                  060209-28421202-000057
  S1387                      0.32     24.38     84.65    1.6730 RG1                  Node_3393           
  S1388                      0.18     39.36     90.00    0.4820 RG1                  060201-28421203-000031
  S1389                      0.07     27.56     90.00    1.3740 RG1                  060201-28421203-000029
  S139                       0.25     65.90     87.33    1.9580 RG1                  060209-28420415-000063
  S1390                      0.44    287.41     89.80    2.0250 RG1                  060201-28421203-000019
  S1391                      0.60    499.21     86.51    1.4730 RG1                  060209-28421206-000138
  S1392                      0.30    161.43     86.25    2.8130 RG1                  060209-28421206-000136
  S1393                      0.44     27.63     78.83    1.3710 RG1                  060209-28421206-000126
  S1394                      0.42     44.04     78.22    2.8820 RG1                  060209-28421206-000125
  S1395                      0.41     36.45     83.82    1.9970 RG1                  060209-28421206-000121
  S1396                      0.55    981.61     89.00    1.4240 RG1                  060209-28421202-000109
  S1397                      0.21     45.36     88.66    3.0290 RG1                  060209-28421202-000103
  S1398                      0.56     50.10     89.84    1.3700 RG1                  060209-28421202-000099
  S1399                      0.06     25.07     89.86    4.4230 RG1                  060209-28421202-000098
  S14                        0.57    162.68     83.46    0.9060 RG1                  060209-28421916-000040
  S140                       0.29    240.08     85.87    1.3330 RG1                  060209-28420415-000041
  S1400                      0.41     82.44     83.52    5.7410 RG1                  060209-28421202-000093
  S1401                      0.46     61.11     89.91    0.5390 RG1                  060209-28421202-000070
  S1402                      0.28     47.55     84.36    1.0300 RG1                  060209-28421202-000033
  S1403                      0.54    101.84     89.39    2.3900 RG1                  060209-28421202-000029
  S1404                      0.15     45.01     90.00    2.0610 RG1                  060209-28421202-000028
  S1405                      0.78    100.89     88.21    1.6360 RG1                  060209-28421206-000128
  S1406                      0.04      1.23     90.00    0.0000 RG1                  060209-28421206-000127
  S1407                      0.32    283.78     87.55    1.5780 RG1                  060209-28421206-000120
  S1408                      0.23     15.64     83.86    1.1030 RG1                  060209-28421205-000240
  S1409                      0.24     20.51     83.61    2.3920 RG1                  060209-28421205-000238
  S141                       0.99    235.77     73.86    6.8980 RG1                  060209-28420416-000052
  S1410                      0.59   1652.18     84.09    2.7080 RG1                  060209-28421205-000235
  S1411                      0.56    158.93     88.58    2.6240 RG1                  060209-28421205-000233
  S1412                      0.04     23.25     90.00    3.3730 RG1                  060209-28421205-000231
  S1413                      0.04     27.75     90.00    1.1450 RG1                  060209-28421205-000226
  S1414                      0.46     81.77     87.36    1.4760 RG1                  060209-28421205-000223
  S1415                      0.04      1.24     90.00    3.3430 RG1                  060209-28421205-000213
  S1416                      0.45     83.36     89.71    4.8500 RG1                  060209-28421205-000211
  S1417                      0.73    122.58     89.13    4.7060 RG1                  060209-28421205-000107
  S1418                      0.04     32.64     90.00    4.2040 RG1                  060209-28421205-000087
  S1419                      0.37     66.98     88.40    0.7030 RG1                  060209-28421205-000059
  S142                       0.50     46.56     74.63    5.3330 RG1                  060201-28460113-000004
  S1420                      1.02    279.18     85.46    3.1080 RG1                  060209-28421205-000023
  S1421                      0.77     70.26     84.84    2.3360 RG1                  060209-28421205-000022
  S1422                      0.49     44.59     87.19    2.0870 RG1                  060209-28421205-000014
  S1423                      0.60     74.82     89.18    2.6740 RG1                  060201-28421205-000076
  S1424                      2.26    169.52     77.68    0.7580 RG1                  Node_3262           
  S1425                      0.38     94.52     89.02    1.1040 RG1                  060206-28421104-000057
  S1426                      0.29     60.71     73.70    4.2620 RG1                  060209-28421107-000083
  S1427                      0.29     45.69     89.98    0.3780 RG1                  060209-28421107-000082
  S1428                      0.41     92.89     81.48    0.2100 RG1                  060209-28421107-000081
  S1429                      0.02     19.22     88.82    4.2890 RG1                  060209-28421107-000080
  S143                       1.16    213.81     70.34    4.5700 RG1                  060209-28460114-000016
  S1430                      0.05     24.28     84.15    4.9080 RG1                  060209-28421107-000079
  S1431                      0.19     21.10     77.40    3.6980 RG1                  060209-28421107-000078
  S1432                      0.38    202.46     81.85    2.6870 RG1                  060209-28421107-000077
  S1433                      0.27    137.44     77.88    1.4330 RG1                  060209-28421107-000075
  S1434                      0.39     95.04     80.43    1.2470 RG1                  060209-28421107-000068
  S1435                      0.60    112.20     84.19    3.2590 RG1                  060209-28421103-000057
  S1436                      1.00     99.73     81.39    0.9880 RG1                  060209-28421103-000052
  S1437                      0.05     28.55     86.18    0.0000 RG1                  060201-28421107-000025
  S1438                      0.50     46.98     71.88    0.5230 RG1                  060209-28421101-000042
  S1439                      0.57     83.80     70.62    0.6010 RG1                  060209-28421101-000010
  S144                       1.41    119.19     21.91    2.7000 RG1                  060201-28460115-000005
  S1440                      0.71     73.51     74.99    1.2290 RG1                  060209-28421105-000050
  S1441                      0.42    169.55     72.09    0.6930 RG1                  060209-28421105-000042
  S1442                      0.63     52.44     84.70    0.5640 RG1                  060209-28421105-000041
  S1443                      0.86     28.80     85.20    0.4380 RG1                  060209-28421101-000051
  S1444                      0.55     45.14     87.63    0.2710 RG1                  060209-28421101-000050
  S1445                      0.34     27.87     71.42    0.7200 RG1                  060209-28421101-000020
  S1446                      0.64     93.75     86.68    0.5660 RG1                  060209-28421007-000037
  S1447                      0.17    110.26     89.03    0.9920 RG1                  060209-28421101-000092
  S1448                      0.89     76.48     87.14    0.3990 RG1                  060209-28421101-000082
  S1449                      0.88     85.04     88.31    0.7720 RG1                  060209-28421101-000052
  S145                       0.64     99.84     67.00    1.3350 RG1                  060209-28460114-000021
  S1450                      0.21     48.01     80.96    1.1260 RG1                  060209-28421101-000030
  S1451                      0.09     40.60     78.14    2.1710 RG1                  060209-28421101-000023
  S1452                      0.89    302.14     87.67    0.6060 RG1                  060209-28421101-000022
  S1453                      0.63     59.91     84.55    0.7410 RG1                  060209-28420713-000003
  S1454                      0.35     11.51     88.29    0.4810 RG1                  060209-28420713-000002
  S1455                      0.18     29.43     82.19    1.7580 RG1                  060209-28421101-000102
  S1456                      0.31     45.09     64.24    0.5890 RG1                  060209-28421101-000039
  S1457                      0.42   1673.86     55.59    0.6160 RG1                  060209-28421101-000014
  S1458                      0.49     52.47     63.87    0.5070 RG1                  060209-28421101-000012
  S1459                      0.08     19.56     83.32    0.4270 RG1                  060209-28421101-000007
  S146                       0.59     47.37     75.45    0.9420 RG1                  060209-28420804-000025
  S1460                      0.27    212.55     63.24    0.4170 RG1                  060209-28420714-000034
  S1461                      0.21     66.39     73.02    0.1800 RG1                  060209-28420714-000031
  S1462                      0.66    156.90     59.11    0.5420 RG1                  060209-28420714-000028
  S1463                      0.37     65.10     63.33    0.5920 RG1                  060209-28420714-000027
  S1464                      0.35    240.12     71.92    0.5550 RG1                  060209-28420713-000041
  S1465                      0.35     84.24     71.13    0.7290 RG1                  060209-28420713-000012
  S1466                      0.88     48.00     82.32    0.5310 RG1                  060209-28420714-000066
  S1467                      0.76     43.68     78.62    0.5870 RG1                  060209-28420714-000060
  S1468                      0.95     43.75     82.43    0.7310 RG1                  060209-28420714-000040
  S1469                      0.51     66.17     67.49    0.3630 RG1                  060209-28420714-000025
  S147                       0.31     55.25     85.25    1.2180 RG1                  060209-28420413-000058
  S1470                      0.49     29.07     79.88    0.9890 RG1                  060209-28420714-000023
  S1471                      0.69    378.24     71.73    0.7520 RG1                  060209-28420714-000020
  S1472                      0.81    227.21     88.55    0.6090 RG1                  060209-28421103-000095
  S1473                      0.53     17.77     85.29    0.4610 RG1                  060209-28421103-000053
  S1474                      0.31     23.39     83.66    0.2690 RG1                  060209-28421103-000013
  S1475                      0.84     83.76     83.73    0.7350 RG1                  060209-28420715-000046
  S1476                      0.39   2433.83     80.78    1.5250 RG1                  060209-28420715-000045
  S1477                      0.57     23.44     58.36    2.0100 RG1                  060209-28420715-000030
  S1478                      0.45   1015.68     59.80    1.8970 RG1                  060209-28420715-000029
  S1479                      1.74    544.06     75.93    1.2610 RG1                  060209-28420715-000028
  S148                       0.65     54.71     83.52    0.6690 RG1                  060209-28420704-000099
  S1480                      0.58     44.30     66.95    0.9400 RG1                  060209-28420715-000016
  S1481                      0.66     50.16     84.55    0.5140 RG1                  060209-28420715-000015
  S1482                      0.14     53.23     82.71    1.9240 RG1                  060209-28420715-000014
  S1483                      0.73     46.50     84.55    1.0780 RG1                  060209-28420714-000058
  S1484                      0.24     23.16     62.69    1.2000 RG1                  060201-28420715-000012
  S1485                      0.49    138.76     81.82    1.8520 RG1                  060209-28421104-000007
  S1486                      0.37     29.33     83.23    0.3740 RG1                  Node_3397           
  S1487                      0.37     83.85     87.08    0.3510 RG1                  Node_3396           
  S1488                      0.41     41.37     82.31    1.4380 RG1                  060209-28420716-000110
  S1489                      0.41     88.40     88.51    1.2340 RG1                  060206-28421104-000059
  S149                       0.37     33.72     80.55    1.0130 RG1                  060209-28420702-000101
  S1490                      0.36     71.21     88.64    0.6710 RG1                  060201-28420716-000054
  S1491                      0.41     66.84     90.00    0.7340 RG1                  060201-28420716-000052
  S1492                      0.69    251.88     87.32    2.2040 RG1                  Node_3399           
  S1493                      0.57     34.72     87.02    2.0750 RG1                  Node_3398           
  S1494                      0.67     67.08     87.40    1.7510 RG1                  Node_3392           
  S1495                      0.52     17.24     88.63    1.1130 RG1                  Node_3391           
  S1496                      0.50     84.09     87.97    1.4770 RG1                  Node_3390           
  S1497                      0.72     47.09     81.97    1.9500 RG1                  Node_3389           
  S1498                      0.70     91.60     83.99    1.5070 RG1                  Node_3387           
  S1499                      0.69     97.37     84.79    1.0810 RG1                  Node_3386           
  S15                        0.23     39.14     86.72    0.3600 RG1                  060209-28422014-000070
  S150                       0.71    148.04     82.13    0.6650 RG1                  060209-28420701-000004
  S1500                      0.18     27.97     90.00    1.9940 RG1                  Node_3323           
  S1501                      1.73    198.42     60.28    1.1220 RG1                  060209-28460901-000103
  S1502                      0.37     73.36     70.95    2.5690 RG1                  060209-28460901-000101
  S1503                      0.23     56.84     77.11    1.7090 RG1                  060209-28460901-000094
  S1504                      0.10     18.84     60.20    2.2880 RG1                  060209-28460901-000115
  S1505                      0.10     32.46     44.04    3.8310 RG1                  060209-28460901-000114
  S1506                      0.16      5.36     62.49    1.1000 RG1                  060209-28460901-000113
  S1507                      0.14     29.76     74.19    2.3060 RG1                  060209-28460901-000112
  S1508                      0.20     22.24     65.07    1.4040 RG1                  060209-28460901-000110
  S1509                      0.43    102.73     61.32    1.1870 RG1                  060209-28460901-000108
  S151                       0.73     53.37     81.73    0.6570 RG1                  060209-28420604-000046
  S1510                      0.29    136.42     49.83    1.3860 RG1                  060209-28460901-000107
  S1511                      0.34     37.18     63.20    1.1020 RG1                  060209-28460901-000106
  S1512                      0.13     34.17     69.03    1.6300 RG1                  060209-28460901-000104
  S1513                      0.70    190.75     78.39    2.6160 RG1                  060209-28460901-000102
  S1514                      2.42   1034.91     61.74    1.3770 RG1                  060209-28460513-000014
  S1515                      0.33     67.63     72.25    1.3920 RG1                  060209-28460901-000116
  S1516                      1.45    401.41     69.26    1.9200 RG1                  060201-28460902-000004
  S1517                      0.77     86.13     57.57    2.3820 RG1                  060201-28460514-000021
  S1518                      0.32     42.11     76.47    1.6790 RG1                  060201-28460514-000019
  S1519                      0.34    211.06     64.15    1.7090 RG1                  060201-28460514-000017
  S152                       0.48     25.72     69.69    0.5920 RG1                  060209-28420604-000093
  S1520                      1.15     60.75     74.94    5.9480 RG1                  060201-28460515-000021
  S1521                      0.67     19.75     54.35    2.4510 RG1                  060201-28460515-000012
  S1522                      0.91     56.27     60.43    2.8920 RG1                  060201-28460515-000011
  S1523                      0.46     52.18     57.24    3.1810 RG1                  060201-28460514-000025
  S1524                      0.72     69.09     72.75    5.8670 RG1                  060201-28460514-000023
  S1525                      1.75     58.17     69.44    4.5960 RG1                  060201-28460515-000020
  S1526                      0.83     27.53     66.35    2.2330 RG1                  060209-28460512-000016
  S1527                      0.99     37.03     65.30    1.3130 RG1                  060209-28460512-000012
  S1528                      0.44    166.57     77.39    1.1890 RG1                  060209-28460512-000015
  S1529                      0.72     36.82     64.07    1.8890 RG1                  060209-28460512-000011
  S153                       0.47     62.62     83.30    0.8340 RG1                  060209-28420701-000032
  S1530                      0.56     61.84     84.71    0.7870 RG1                  060209-28460512-000010
  S1531                      0.36     35.03     58.76    1.0340 RG1                  060209-28460511-000025
  S1532                      0.61     81.70     77.48    1.6830 RG1                  060201-28460511-000002
  S1533                      0.09     20.43     51.94    1.5800 RG1                  060201-28460511-000001
  S1534                      0.99    344.26     71.32    3.8320 RG1                  060209-28460511-000015
  S1535                      0.30     35.93     61.65    1.7290 RG1                  060209-28460511-000012
  S1536                      0.53    152.15     69.30    1.7710 RG1                  060209-28460511-000006
  S1537                      0.27     61.42     53.07    0.5090 RG1                  060209-28460510-000010
  S1538                      0.10     22.25     53.32    0.5270 RG1                  060209-28460510-000009
  S1539                      0.75    358.97     54.71    2.7380 RG1                  060201-28460514-000009
  S154                       1.02     35.98     76.24    0.5220 RG1                  060209-28420706-000026
  S1540                      0.16     74.99     53.45    0.7860 RG1                  060201-28460510-000003
  S1541                      0.47     91.30     66.19    0.5250 RG1                  060209-28460514-000011
  S1542                      0.29     47.61     59.75    0.8060 RG1                  060209-28460510-000007
  S1543                      0.24     64.60     58.30    0.9170 RG1                  060209-28460510-000005
  S1544                      0.10     27.72     79.05    1.0370 RG1                  060209-28460510-000002
  S1545                      0.21     49.31     52.47    0.3920 RG1                  060209-28460510-000001
  S1546                      0.26    135.52     84.70    0.6520 RG1                  060201-28460514-000027
  S1547                      0.25     41.22     33.88    1.3530 RG1                  060201-28460514-000016
  S1548                      0.19     17.92     51.63    1.5090 RG1                  060201-28460514-000014
  S1549                      0.18     27.02     81.90    1.4950 RG1                  060201-28460514-000012
  S1550                      0.15     42.99     82.65    1.2580 RG1                  060201-28460514-000011
  S1551                      0.51    195.90     60.74    0.6730 RG1                  060201-28460514-000001
  S1552                      0.36     25.01     67.10    0.9300 RG1                  060201-28460513-000004
  S1553                      0.02      2.90     70.15    1.1210 RG1                  060201-28460510-000002
[...]
  060102-28460505-000008        1.17      1.17      1.21      0.76         0.76
  060102-28460505-000009        0.01      0.01      0.01      1.87         0.01
  060102-28460505-000017        0.01      0.01      0.10      0.01         0.01
  060102-28460506-000001        0.38      0.38      0.47      1.72         0.01
  060102-28460506-000002        1.87      1.87      2.49      2.84         0.01
  060102-28460507-000001        0.47      0.47      0.67      0.81         0.01
  060102-28460507-000002        0.41      0.41      0.67      0.01         0.01
  060102-28460507-000003        0.45      0.45      0.50      0.01         0.01
  060102-28460507-000006        0.64      0.64      0.66      0.01         0.01
  060102-28460507-000007        0.45      0.45      0.64      0.01         0.01
  060102-28460507-000008        0.45      0.45      0.64      0.01         0.01
  060102-28460507-000009        0.63      0.63      0.64      0.40         0.37
  060102-28460509-000001        0.86      0.86      1.08      0.17         0.01
  060102-28460509-000002        0.70      0.70      0.75      0.19         0.01
  060102-28460509-000003        0.69      0.69      0.75      0.01         0.01
  060102-28460509-000004        0.27      0.28      0.27      0.91         0.27
  060102-28460509-000005        0.29      0.29      0.69      0.01         0.01
  060102-28460509-000006        0.27      0.27      0.29      0.01         0.01
  060102-28460509-000008        0.01      0.76      0.01      3.13         0.01
  060102-28460509-000009        0.89      0.89      1.08      0.60         0.60
  060102-28460509-000010        0.78      0.78      0.96      0.01         0.01
  060102-28460509-000011        0.74      0.74      0.78      0.01         0.01
  060102-28460509-000012        0.84      0.84      1.01      0.01         0.01
  060102-28460509-000013        0.84      0.84      0.96      0.01         0.01
  060102-28460509-000017        0.83      0.83      1.12      0.01         0.01
  060102-28460509-000018        0.83      0.83      1.01      0.01         0.01
  060102-28460509-000019        0.94      0.94      1.12      0.01         0.01
  060102-28460509-000020        0.86      0.86      1.42      0.01         0.01
  060102-28460509-000021        0.76      0.76      0.94      0.01         0.01
  060102-28460509-000022        0.01      0.01      0.01      5.29         0.01
  060102-28460509-000023        0.01      0.01      0.01      1.53         0.01
  060102-28460509-000024        0.01      0.01      0.89      0.01         0.01
  060102-28460509-000032        0.82      0.82      1.47      0.01         0.01
  060102-28460509-000033        0.05      0.05      0.82      0.01         0.01
  060102-28460509-000035        0.05      0.16      0.05      4.37         0.05
  060102-28460509-000036        0.10      0.10      0.16      0.01         0.01
  060102-28460510-000001        1.89      1.89      2.25      0.02         0.02
  060102-28460510-000002        1.89      1.89      2.78      0.01         0.01
  060102-28460510-000003        1.38      1.69      1.38      2.64         1.38
  060102-28460510-000004        1.48      1.48      1.83      0.01         0.01
  060102-28460510-000005        1.70      1.70      1.83      0.01         0.01
  060102-28460510-000006        1.66      1.66      1.82      0.01         0.01
  060102-28460510-000007        1.63      1.63      1.82      0.01         0.01
  060102-28460510-000008        0.94      0.94      1.28      0.01         0.01
  060102-28460510-000009        0.69      0.69      0.94      0.01         0.01
  060102-28460510-000010        0.59      0.59      0.69      0.01         0.01
  060102-28460510-000011        0.74      0.74      0.80      0.01         0.01
  060102-28460510-000012        0.80      0.82      0.80      3.31         0.80
  060102-28460510-000013        0.82      0.82      0.89      0.01         0.01
  060102-28460510-000014        0.88      0.88      0.89      0.44         0.45
  060102-28460510-000015        0.88      0.89      0.88      3.06         0.86
  060102-28460510-000016        0.42      0.42      0.59      0.01         0.01
  060102-28460510-000017        0.88      0.89      0.89      0.76         0.62
  060102-28460510-000018        0.67      0.67      0.89      0.01         0.01
  060102-28460510-000019        1.21      1.24      1.28      0.86         0.03
  060102-28460510-000020        1.70      1.72      1.70      8.03         1.19
  060102-28460510-000021        1.66      1.66      1.72      0.01         0.01
  060102-28460511-000009        1.39      1.39      1.67      0.01         0.01
  060102-28460511-000010        1.30      1.30      1.39      0.16         0.17
  060102-28460511-000011        0.39      0.39      0.50      0.73         0.01
  060102-28460511-000012        0.44      0.44      0.50      0.01         0.01
  060102-28460511-000013        0.44      0.46      0.44      0.79         0.44
  060102-28460511-000014        0.43      0.43      0.46      0.01         0.01
  060102-28460511-000015        0.43      0.43      0.44      0.01         0.01
  060102-28460511-000016        0.38      0.38      0.44      0.21         0.21
  060102-28460511-000017        0.38      0.45      0.38      1.64         0.38
  060102-28460511-000018        0.62      0.62      1.30      0.01         0.01
  060102-28460511-000019        0.01      0.01      0.16      0.01         0.01
  060102-28460511-000021        0.01      0.01      0.01      0.01         0.01
  060102-28460511-000022        0.01      0.01      0.25      0.01         0.01
  060102-28460511-000023        1.67      1.67      2.30      0.01         0.01
  060102-28460511-000024        0.36      0.36      0.39      0.01         0.01
  060102-28460511-000025        0.36      0.36      0.42      0.01         0.01
  060102-28460512-000002        0.01      0.01      0.01      0.73         0.01
  060102-28460512-000006        0.18      0.18      0.23      0.12         0.11
  060102-28460512-000007        0.14      0.14      0.18      0.01         0.01
  060102-28460512-000008        0.14      0.14      0.18      0.01         0.01
  060102-28460513-000001        0.01      0.01      0.28      0.01         0.01
  060102-28460513-000002        0.57      0.57      0.82      0.01         0.01
  060102-28460514-000001        0.31      0.31      0.77      0.01         0.01
  060102-28460514-000002        0.31      1.38      0.31      2.63         0.31
  060102-28460514-000008        1.21      1.21      1.38      0.01         0.01
  060102-28460514-000009        0.01      0.01      1.38      0.01         0.01
  060102-28460514-000010        0.01      0.01      0.01     10.15         0.01
  060102-28460514-000016        0.01      0.01      0.41      0.01         0.01
  060102-28460514-000017        0.01      0.05      0.01      0.13         0.01
  060102-28460514-000021        0.01      0.01      0.05      0.01         0.01
  060102-28460514-000022        0.01      0.01      0.01      8.44         0.01
  060102-28460514-000023        1.45      1.45     10.42      0.01         0.01
  060102-28460514-000027        0.01      0.01      6.82      4.01         0.01
  060102-28460514-000028        1.71      1.71      6.82      1.80         1.71
  060102-28460515-000004        2.26      2.26      3.72      1.74         1.69
  060102-28460515-000013        3.60      3.60      4.16      0.79         0.58
  060102-28460515-000014        3.16      4.16      3.16      3.08         1.80
  060102-28460515-000018        0.43      0.43      4.19      0.40         0.01
  060102-28460515-000019        4.84      4.84      5.67      3.07         2.91
  060102-28460515-000020        2.26      3.16      2.26      4.70         2.15
  060102-28460905-000001        0.01      0.01      1.17      0.01         0.01
  060102-28460905-000002        0.01      0.01      0.01      0.13         0.01
  060102-28460905-000003        1.17      1.17      1.29      0.92         0.89
  060102-28460909-000001        0.05      0.05      0.14      0.01         0.01
  060102-28460909-000003        0.01      0.01      0.25      0.01         0.01
  060102-28460909-000004        0.01      0.01      0.01      0.05         0.01
  060102-28460909-000010        0.14      0.14      0.25      0.28         0.01
  060102-28460913-000001        0.01      0.01      1.38      0.01         0.01
  060102-28460913-000002        0.01      0.01      1.18      0.01         0.01
  060102-28460913-000003        0.01      0.01      0.01      0.26         0.01
  060102-28460913-000004        1.36      1.36      1.42      0.01         0.01
  060102-28460913-000005        1.37      1.38      1.37      1.04         0.94
  060102-28460913-000006        1.36      1.36      1.49      0.01         0.01
  060102-28460913-000007        1.37      1.37      1.42      0.01         0.01
  060102-28460913-000008        1.72      1.72      1.77      1.48         1.48
  060102-28460913-000009        1.77      1.77      1.77      1.81         1.77
  060102-28460913-000010        1.50      1.50      1.77     18.21         0.01
  060102-28460913-000011        1.18      1.18      1.33      0.01         0.01
  060102-28460913-000013        1.31      1.33      1.31      1.65         1.31
  060102-28460913-000014        0.01      0.01      0.05      0.01         0.01
  060102-28461301-000001        2.16      2.16      2.16      2.45         2.14
  060102-28461301-000002        2.16      2.16      2.29      0.01         0.01
  060102-28461301-000004        2.21      2.21      2.29      0.01         0.01
  060102-28461301-000006        2.16      2.16      2.75      0.01         0.01
  060102-28461309-000007        0.01      0.01      0.01      1.96         0.01
  060102-28461309-000008        0.01      0.01      0.09      0.01         0.01
  060102-28461309-000009        0.01      0.01      0.09      0.01         0.01
  060102-32421507-000001        1.13      1.13      1.36      1.31         0.01
  060102-32421507-000002        1.16      1.16      1.36      0.01         0.01
  060102-32421511-000001        1.43      1.43      1.45      0.62         0.01
  060102-32421511-000006        1.44      1.44      1.45      0.05         0.03
  060102-32421511-000007        1.13      1.13      1.44      0.24         0.24
  060102-32421515-000001        1.43      1.43      1.48      0.01         0.01
  060102-32421515-000002        1.48      1.48      1.48      0.01         0.01
  060102-32421515-000004        1.54      1.54      1.61      0.01         0.01
  060102-32421515-000005        1.45      1.45      1.54      0.01         0.01
  060102-32421515-000007        1.60      1.60      1.64      1.46         0.01
  060102-32421515-000009        1.61      1.61      1.64      0.01         0.01
  060102-32421903-000001        1.62      1.64      1.62      1.70         1.58
  060102-32421911-000001        1.40      1.40      1.40      1.43         1.36
  060102-32421911-000002        1.40      1.40      1.68      0.01         0.01
  060102-32421911-000003        0.15      1.68      0.15      2.84         0.15
  060102-32421911-000007        0.07      0.15      0.10      0.43         0.07
  060102-32421911-000008        0.01      0.01      0.01      0.69         0.01
  060102-32421915-000002        0.01      0.01      0.01      1.51         0.01
  060102-32422003-000001        1.33      1.33      2.30      1.17         1.17
  060102-32422003-000002        1.29      1.29      1.33      1.13         1.12
  060102-32422007-000001        2.28      2.30      2.28      5.11         2.28
  060102-32422010-000017        2.00      2.00      2.32      0.01         0.01
  060102-32422011-000012        1.17      1.17      1.23      0.01         0.01
  060102-32422011-000013        0.73      0.73      1.17      0.01         0.01
  060102-32422011-000014        0.62      0.62      0.73      0.01         0.01
  060102-32422011-000015        0.62      0.62      0.76      0.20         0.15
  060102-32422011-000016        1.23      1.23      2.00      0.01         0.01
  060102-32422012-000004        0.01      0.99      0.01      1.18         0.01
  060102-32422014-000014        0.22      0.91      0.22      2.35         0.22
  060102-32422014-tttt14        0.91      2.45      0.91      2.52         0.91
  060102-32422016-000006        0.42      0.42      0.99      0.44         0.41
  060102-32422016-000008        0.34      0.34      0.42      0.01         0.01
  060102-32422016-000014        0.33      0.33      0.34      0.01         0.01
  060102-32461709-000001        0.01      0.01      0.04      0.01         0.01
  060102-32461709-000002        0.01      0.01      0.01      0.04         0.01
  060102-32461709-000012        0.01      0.01      0.06      0.01         0.01
  060102-32461709-000014        0.01      0.06      0.01      0.17         0.01
  060102-32461715-000011        0.01      0.01      0.19      0.01         0.01
  060102-32461715-000012        0.51      0.51      1.27      0.01         0.01
  060102-32461715-000014        0.19      0.19      0.22      0.01         0.01
  060102-32461715-000015        0.22      0.22      0.28      0.01         0.01
  060102-32461715-000017        0.30      0.30      0.36      0.01         0.01
  060102-32461715-000018        0.28      0.28      0.30      0.01         0.01
  C1                          5.08      5.21      5.09      5.70         3.61
  HD12                        0.01      0.01      0.01      3.09         0.01
  HD13_2                      0.01      0.01      0.01      0.17         0.01
  HD14                        0.01      0.01      0.01      0.35         0.01
  HD19                        0.01      0.01      0.01      3.37         0.01
  HD2_2                       0.01      0.01      0.01      0.50         0.01
  HD33                        0.01      0.01      0.01      2.73         0.01
  HD42_2                      0.01      0.01      0.01      0.62         0.01
  HD46_2                      0.01      0.01      0.01      1.64         0.01
  HD48_1                      0.01      0.01      0.01      2.24         0.01
  HD48_2                      0.01      0.01      0.01      1.74         0.01
  HD49_1                      0.01      0.01      0.01      1.87         0.01
  HD49_2                      0.01      0.01      0.01      0.01         0.01
  HD5                         0.01      0.01      0.01      0.23         0.01
  HD56                        0.01      0.01      0.01      0.05         0.01
  HD57_2                      0.01      0.01      0.01      0.40         0.01
  HD7                         0.01      0.01      0.01      0.01         0.01
  HD70_2                      0.01      0.01      0.01      0.03         0.01
  HD71                        0.01      0.01      0.01      0.11         0.01
  HD72_2                      0.01      0.01      0.01      0.15         0.01
  HD73                        0.01      0.01      0.01      2.82         0.01
  HD74                        0.01      0.01      0.01      4.75         0.01
  HD75_2                      0.01      0.01      0.01      0.77         0.01
  HD76                        0.01      0.01      0.01      6.08         0.01
  HD8_2                       0.01      0.01      0.01      0.70         0.01
  Link_3217                   1.60      1.60      1.64      0.01         0.01
  Link_3223                   0.40      0.40      0.74      0.09         0.09
  Link_3224                   0.22      0.22      1.37      0.01         0.01
  Link_3225                   1.05      1.05      2.12      0.01         0.01
  Link_3226                   1.18      1.18      2.03      0.01         0.01
  Link_3227                   2.03      2.03      3.42      0.01         0.01
  Link_3228                   1.63      1.63      3.16      0.01         0.01
  Link_3229                   0.08      0.08      1.91      0.01         0.01
  Link_3230                   3.38      3.38     17.36      0.01         0.01
  Link_3231                   1.22      1.22      3.38      0.01         0.01
  Link_3232                   1.44      1.71      1.44      2.12         1.44
  Link_3242                   3.04      3.06      3.30      3.04         0.02
  Link_3243                   0.54      0.54      0.60      0.01         0.01
  Link_3249                   0.63      0.65      0.63      4.44         0.63
  Link_3250                   0.66      0.66      0.84      0.01         0.01
  Link_3251                   0.63      0.63      0.66      0.36         0.36
  Link_3254                   0.01      0.37      0.01      7.78         0.01
  Link_3265                   0.01      0.05      0.01      2.90         0.01
  Link_3267                   1.84      1.84      5.46      0.23         0.24
  Link_3268                   0.01      0.01      0.55      0.01         0.01
  Link_3269                   0.55      0.55      0.56      0.14         0.07
  Link_3270                   0.39      0.39      0.60      0.01         0.01
  Link_3271                   0.60      0.60      0.72      0.01         0.01
  Link_3272                   0.71      0.72      0.72      0.73         0.40
  Link_3273                   0.67      0.67      0.72      1.47         0.01
  Link_3277                   0.88      0.88     19.45      0.01         0.01
  Link_3278                   2.78      2.78      3.48      0.87         0.85
  Link_3279                   3.48      3.48     21.51      0.03         0.06
  Link_3280                   0.44      0.44      1.47      2.95         0.01
  Link_3282                   1.08      1.08      1.12      0.01         0.01
  Link_3283                   0.98      0.98      1.35      0.01         0.01
  Link_3284                   2.27      2.27      2.47      0.01         0.01
  Link_3335                   0.40      0.40      0.53      0.01         0.01
  Link_3338                   0.73      0.73      0.80      1.26         0.01
  Link_3339                   0.66      0.73      0.66      1.80         0.66
  Link_3340                  21.85     21.85     21.93      0.01         0.01
  Link_3341                  21.82     21.82     21.85      0.48         0.48
  Link_3342                  21.81     21.81     21.82      0.49         0.50
  Link_3343                  21.79     21.79     21.81      0.49         0.52
  Link_3344                   1.21      1.21     21.81      0.01         0.01
  Link_3345                   1.21      1.21      1.46      0.27         0.01
  Link_3346                   1.46      1.46      1.67      0.01         0.02
  Link_3347                   1.22      1.22      1.67      1.66         0.01
  Link_3348                   1.22      1.22      1.23      1.21         1.20
  Link_3349                   1.23      1.23      1.43      0.58         0.59
  Link_3350                   0.31      1.43      0.31      1.95         0.31
  Link_3351                   0.29      0.29      0.44      0.01         0.01
  Link_3352                   1.58      1.58     17.41      0.01         0.01
  Link_3355                   1.41      1.41      1.48      0.04         0.01
  Link_3356                   1.48      1.48      1.54      0.01         0.01
  Link_3357                   1.54      1.54      1.67      0.01         0.01
  Link_3358                   1.67      1.67      2.02      0.01         0.01
  Link_3359                   3.03      3.03     23.02      0.01         0.01
  Link_3360                   0.01      0.01      2.57      0.01         0.01
  Link_3361                   0.01      0.01      2.57      0.01         0.01
  Link_3362                   0.08      0.08      2.68      0.01         0.01
  Link_3363                   1.19      1.19      1.19      3.02         0.57
  Link_3364                   1.85      1.85      5.21      0.01         0.01
  

  Analysis begun on:  Sun Nov 19 18:36:25 2023
  Analysis ended on:  Sun Nov 19 18:40:14 2023
  Total elapsed time: 00:03:49